
**** 03/18/20 20:06:33 ******** PSpice 9.2.3 (Jan 2002) ******* ID# 1111111111 
 ** Profile: "SCHEMATIC1-sim_lineal"  [ C:\Cadence\PSD_14.2\tools\cheby_lineal-schematic1-sim_lineal.sim ] 


 ****     CIRCUIT DESCRIPTION


******************************************************************************




** Creating circuit file "cheby_lineal-schematic1-sim_lineal.sim.cir" 
** WARNING: THIS AUTOMATICALLY GENERATED FILE MAY BE OVERWRITTEN BY SUBSEQUENT SIMULATIONS

*Libraries: 
* Local Libraries :
* From [PSPICE NETLIST] section of C:\Cadence\PSD_14.2\tools\PSpice\PSpice.ini file:
.lib "nom.lib" 

*Analysis directives: 
.AC DEC 10000 0.1 1Meg
.PROBE V(alias(*)) I(alias(*)) W(alias(*)) D(alias(*)) NOISE(alias(*)) 
.INC ".\cheby_lineal-SCHEMATIC1.net" 



**** INCLUDING cheby_lineal-SCHEMATIC1.net ****
* source CHEBY_LINEAL
R_R11         VIN VOUT  977  
C_C12         0 VOUT  470n  
V_V1         VIN 0 DC 0Vdc AC 1Vac 

**** RESUMING cheby_lineal-schematic1-sim_lineal.sim.cir ****
.END

**** 03/18/20 20:06:33 ******** PSpice 9.2.3 (Jan 2002) ******* ID# 1111111111 
 ** Profile: "SCHEMATIC1-sim_lineal"  [ C:\Cadence\PSD_14.2\tools\cheby_lineal-schematic1-sim_lineal.sim ] 


 ****     SMALL SIGNAL BIAS SOLUTION       TEMPERATURE =   27.000 DEG C


******************************************************************************



 NODE   VOLTAGE     NODE   VOLTAGE     NODE   VOLTAGE     NODE   VOLTAGE


(  VIN)    0.0000  ( VOUT)    0.0000  




    VOLTAGE SOURCE CURRENTS
    NAME         CURRENT

    V_V1         0.000E+00

    TOTAL POWER DISSIPATION   0.00E+00  WATTS



          JOB CONCLUDED

**** 03/18/20 20:06:33 ******** PSpice 9.2.3 (Jan 2002) ******* ID# 1111111111 
 ** Profile: "SCHEMATIC1-sim_lineal"  [ C:\Cadence\PSD_14.2\tools\cheby_lineal-schematic1-sim_lineal.sim ] 


 ****     JOB STATISTICS SUMMARY


******************************************************************************



  Total job time (using Solver 1)   =        2.09
